results/PD39_CONFIRMATORY_OUTAGE_DIAGNOSTICS.csv
link,src_bus,dst_bus,discovery_status,diagnostic_stage,diagnostic_type,diagnostic_message,graph_connected,powerflow_finite,dynamic_state_finite,fixed_point,voltage_min_pu,voltage_max_pu,alpha,discovery_dynamic_margin,discovery_static_weakness
1,1,2,ok,spectrum,qualified_stable,,true,true,true,true,0.9819999933242798,1.0635000467300415,-0.1038265891706446,0.1038265891706446,0.041100002833102334
2,1,39,ok,spectrum,qualified_stable,,true,true,true,true,0.9819999933242798,1.0670756410060012,-0.098235925463038,0.098235925463038,0.025000000993410747
3,2,3,ok,spectrum,qualified_stable,,true,true,true,true,0.9819999933242798,1.0635000467300417,-0.1018792609045716,0.1018792609045716,0.015100000184657953
4,2,25,ok,spectrum,qualified_stable,,true,true,true,true,0.9819999933242798,1.0635000467300415,-0.13780653353493297,0.13780653353493297,0.008600000003290073
5,2,30,equilibrium_failed,graph,graph_disconnected,undirected network graph disconnected,false,false,false,false,NaN,NaN,NaN,NaN,0.01810000091791153
6,3,4,ok,spectrum,qualified_stable,,true,true,true,true,0.9804598828908275,1.0635000467300422,-0.09258882003679975,0.09258882003679975,0.021300001215596744
7,3,18,ok,spectrum,qualified_stable,,true,true,true,true,0.9819999933242798,1.063500046730042,-0.09808845980556763,0.09808845980556763,0.013300000474651278
8,4,5,ok,spectrum,qualified_stable,,true,true,true,true,0.9819999933242798,1.063500046730042,-0.09899904574564486,0.09899904574564486,0.01280000060862089
9,4,14,ok,spectrum,qualified_stable,,true,true,true,true,0.9819999933242798,1.0635000467300417,-0.09941535041868527,0.09941535041868527,0.01290000096642154
10,5,6,ok,spectrum,qualified_stable,,true,true,true,true,0.9819999933242798,1.0635000467300415,-0.09951099805128646,0.09951099805128646,0.002600000168695795
11,5,8,ok,spectrum,qualified_stable,,true,true,true,true,0.9815794701144153,1.063500046730042,-0.0981595363007256,0.0981595363007256,0.011200000652729084
12,6,7,ok,spectrum,qualified_stable,,true,true,true,true,0.9720159820190271,1.0635000467300528,-0.0987506105618821,0.0987506105618821,0.009200000227121108
13,6,11,ok,spectrum,qualified_stable,,true,true,true,true,0.9819999933242798,1.0635000467300306,-0.09939956900827691,0.09939956900827691,0.008200000495060337
14,6,31,equilibrium_failed,graph,graph_disconnected,undirected network graph disconnected,false,false,false,false,NaN,NaN,NaN,NaN,0.024999999574252536
15,7,8,ok,spectrum,qualified_stable,,true,true,true,true,0.9819999933242798,1.0635000467300415,-0.09822733629457053,0.09822733629457053,0.004600000113560554
16,8,9,ok,spectrum,qualified_stable,,true,true,true,true,0.9752554867091223,1.0635000467300415,-0.09964842534915348,0.09964842534915348,0.036300001042454046
17,9,39,ok,spectrum,qualified_stable,,true,true,true,true,0.9819999933242798,1.0635000467300413,-0.09898962623729637,0.09898962623729637,0.025000000993410747
18,10,11,ok,spectrum,qualified_stable,,true,true,true,true,0.9819999933242798,1.0635000467300422,-0.09909172772294911,0.09909172772294911,0.0043000000016450365
19,10,13,ok,spectrum,qualified_stable,,true,true,true,true,0.9819999933242798,1.0635000467300422,-0.09942472675902876,0.09942472675902876,0.0043000000016450365
20,10,32,equilibrium_failed,graph,graph_disconnected,undirected network graph disconnected,false,false,false,false,NaN,NaN,NaN,NaN,0.019999999552965164
21,12,11,ok,spectrum,qualified_stable,,true,true,true,true,0.978779624146282,1.0635000467300415,-0.09816404101655721,0.09816404101655721,0.043499981363614396
22,12,13,ok,spectrum,qualified_stable,,true,true,true,true,0.9773008425769606,1.0635000467300415,-0.09801462425127314,0.09801462425127314,0.043499981363614396
23,13,14,ok,spectrum,qualified_stable,,true,true,true,true,0.9819999933242798,1.0635000467300435,-0.09941748447782392,0.09941748447782392,0.010100000562867662
24,14,15,ok,spectrum,qualified_stable,,true,true,true,true,0.9819999933242798,1.063500046730041,-0.0987659584139273,0.0987659584139273,0.021700000723826482
25,15,16,ok,spectrum,qualified_stable,,true,true,true,true,0.9354200051481372,1.063500046730038,-0.09880933844232596,0.09880933844232596,0.009399999981235977
26,16,17,ok,spectrum,qualified_stable,,true,true,true,true,0.9819999933242798,1.0635000467300424,-0.10103925259198039,0.10103925259198039,0.00890000011520559
27,16,19,equilibrium_failed,graph,graph_disconnected,undirected network graph disconnected,false,false,false,false,NaN,NaN,NaN,NaN,0.019500000544103637
28,16,21,ok,spectrum,qualified_stable,,true,true,true,true,0.9819999933242798,1.063500046730042,-0.10056950806536855,0.10056950806536855,0.013500000228766145
29,16,24,ok,spectrum,qualified_stable,,true,true,true,true,0.9819999933242798,1.0795230377866967,-0.10025077919158168,0.10025077919158168,0.00590000043828006
30,17,18,ok,spectrum,qualified_stable,,true,true,true,true,0.9819999933242798,1.063500046730045,-0.09719557552983928,0.09719557552983928,0.008200000495060337
31,17,27,ok,spectrum,qualified_stable,,true,true,true,true,0.9819999933242798,1.063500046730042,-0.09948841329095318,0.09948841329095318,0.017300000364380796
32,19,20,equilibrium_failed,graph,graph_disconnected,undirected network graph disconnected,false,false,false,false,NaN,NaN,NaN,NaN,0.013799998164176942
33,19,33,equilibrium_failed,graph,graph_disconnected,undirected network graph disconnected,false,false,false,false,NaN,NaN,NaN,NaN,0.014199993573129177
34,20,34,equilibrium_failed,graph,graph_disconnected,undirected network graph disconnected,false,false,false,false,NaN,NaN,NaN,NaN,0.01800000046690305
35,21,22,ok,spectrum,qualified_stable,,true,true,true,true,0.9819999933242798,1.0635000467300415,-0.1068117172912289,0.1068117172912289,0.01400000009479653
36,22,23,ok,spectrum,qualified_stable,,true,true,true,true,0.9819999933242798,1.0635000467300415,-0.0984539819213408,0.0984539819213408,0.009600000696837276
37,22,35,equilibrium_failed,graph,graph_disconnected,undirected network graph disconnected,false,false,false,false,NaN,NaN,NaN,NaN,0.014299999922513962
38,23,24,ok,spectrum,qualified_stable,,true,true,true,true,0.9819999933242798,1.063500046730042,-0.10066016492910515,0.10066016492910515,0.03500000215996419
39,23,36,equilibrium_failed,graph,graph_disconnected,undirected network graph disconnected,false,false,false,false,NaN,NaN,NaN,NaN,0.02720000488417489
40,25,26,ok,spectrum,qualified_stable,,true,true,true,true,0.9819999933242798,1.0635000467300415,-0.09821781544446659,0.09821781544446659,0.03230000211421096
41,25,37,equilibrium_failed,graph,graph_disconnected,undirected network graph disconnected,false,false,false,false,NaN,NaN,NaN,NaN,0.023200001035417826
42,26,27,ok,spectrum,qualified_stable,,true,true,true,true,0.9819999933242798,1.0738550919740883,-0.08988461167755576,0.08988461167755576,0.014700000676428217
43,26,28,ok,spectrum,qualified_stable,,true,true,true,true,0.9819999933242798,1.0635000467300408,-0.1024852344224038,0.1024852344224038,0.04740000037589605
44,26,29,ok,spectrum,qualified_stable,,true,true,true,true,0.9819999933242798,1.0635000467300417,-0.10397859926090168,0.10397859926090168,0.06250000248352687
45,28,29,ok,spectrum,qualified_stable,,true,true,true,true,0.9819999933242798,1.0635000467300413,-0.10579928469201258,0.10579928469201258,0.015100000184657953
46,29,38,equilibrium_failed,graph,graph_disconnected,undirected network graph disconnected,false,false,false,false,NaN,NaN,NaN,NaN,0.015600000321865082
